Version 4
SHEET 1 1196 680
WIRE 32 -272 -128 -272
WIRE 352 -272 32 -272
WIRE 640 -272 432 -272
WIRE 720 -272 640 -272
WIRE -128 -256 -128 -272
WIRE -176 -240 -272 -240
WIRE -176 -192 -352 -192
WIRE 368 -160 368 -224
WIRE -272 -128 -272 -240
WIRE -208 -128 -272 -128
WIRE -128 -128 -128 -176
WIRE -128 -128 -208 -128
WIRE 32 -128 32 -192
WIRE 32 -128 -128 -128
WIRE 224 -128 32 -128
WIRE 368 -128 368 -160
WIRE -208 -96 -208 -128
WIRE 16 64 -160 64
WIRE 720 64 720 -272
WIRE 720 64 16 64
WIRE 864 64 720 64
WIRE 1136 64 944 64
WIRE -160 128 -160 64
WIRE 1136 160 1136 64
WIRE 16 192 16 64
WIRE 880 192 880 112
WIRE -352 240 -352 -192
WIRE -160 240 -160 208
WIRE -160 240 -352 240
WIRE -160 272 -160 240
WIRE -160 288 -160 272
WIRE -160 384 -160 336
WIRE 16 384 16 256
WIRE 16 384 -160 384
WIRE 224 384 224 -128
WIRE 224 384 16 384
WIRE 1136 384 1136 240
WIRE 1136 384 224 384
FLAG -208 -96 0
FLAG 368 -160 Vsw2
FLAG 368 -48 0
FLAG 416 -224 0
FLAG 880 272 0
FLAG 928 112 0
FLAG 640 -272 vOscil
SYMBOL cap -176 272 R0
SYMATTR InstName C3
SYMATTR Value 120n
SYMBOL ind -176 112 R0
SYMATTR InstName L2
SYMATTR Value 2.2m
SYMBOL sw 960 64 M270
SYMATTR InstName S1
SYMBOL sw 448 -272 M270
SYMATTR InstName S2
SYMBOL voltage 880 176 R0
WINDOW 3 -243 133 Left 2
WINDOW 123 0 0 Left 2
WINDOW 39 0 0 Left 2
SYMATTR Value PULSE(1 0 300n 100n 100n 1)
SYMATTR InstName V1
SYMBOL voltage 368 -144 R0
WINDOW 3 45 53 Left 2
WINDOW 123 0 0 Left 2
WINDOW 39 0 0 Left 2
SYMATTR Value PULSE(0 1 1u 100n 100n 1)
SYMATTR InstName V2
SYMBOL g -128 -160 M180
SYMATTR InstName G1
SYMATTR Value 0.5
SYMBOL res 16 -288 R0
SYMATTR InstName R1
SYMATTR Value 17.4
SYMBOL cap 0 192 R0
SYMATTR InstName C1
SYMATTR Value 13.8n
SYMBOL voltage 1136 144 R0
WINDOW 123 0 0 Left 2
WINDOW 39 0 0 Left 2
SYMATTR InstName V3
SYMATTR Value 10
TEXT -144 456 Left 2 !.model SW SW(Ron=0.01 Roff=1000Meg Vt=.5 Vh=0 Lser=0 Vser=0)
TEXT -136 512 Left 2 !.tran 1m
